data/rao/angle_monitoring/monitoring_network.xiidm
<?xml version="1.0" encoding="UTF-8"?>
<iidm:network xmlns:iidm="http://www.powsybl.org/schema/iidm/1_14" xmlns:crc="http://www.powsybl.org/schema/iidm/ext/coordinated_reactive_control/1_0" xmlns:apc="http://www.powsybl.org/schema/iidm/ext/active_power_control/1_2" xmlns:ld="http://www.itesla_project.eu/schema/iidm/ext/load_detail/1_0" xmlns:cdlbn="http://www.powsybl.org/schema/iidm/ext/cgmes_dangling_line_boundary_node/1_0" xmlns:refpri="http://www.powsybl.org/schema/iidm/ext/reference_priorities/1_0" xmlns:ctc="http://www.powsybl.org/schema/iidm/ext/cgmes_tap_changers/1_0" xmlns:cmm="http://www.powsybl.org/schema/iidm/ext/cgmes_metadata_models/1_0" xmlns:bv="http://www.powsybl.org/schema/iidm/ext/base_voltage_mapping/1_0" xmlns:cc="http://www.powsybl.org/schema/iidm/ext/cim_characteristics/1_0" xmlns:vprpc="http://www.powsybl.org/schema/iidm/ext/voltage_per_reactive_power_control/1_0" id="urn:uuid:9e7050a8-960b-4e1a-8e34-7f56bc2b2a7b+urn:uuid:4f4a3f29-6892-49ea-bfc1-92051973c799" caseDate="2021-02-09T19:30:00.000Z" forecastDistance="0" sourceFormat="CGMES" minimumValidationLevel="STEADY_STATE_HYPOTHESIS">
    <iidm:network id="urn:uuid:9e7050a8-960b-4e1a-8e34-7f56bc2b2a7b" caseDate="2021-02-09T19:30:00.000Z" forecastDistance="0" sourceFormat="CGMES" minimumValidationLevel="STEADY_STATE_HYPOTHESIS">
        <iidm:property name="CGMES.SSH_ID" value="urn:uuid:3a2a0416-c6a8-49a9-9f23-b8ec7cb29bae"/>
        <iidm:property name="CGMES.EQ_BD_ID" value="urn:uuid:536f9bf1-3f8f-a546-87e3-7af2272f29b7"/>
        <iidm:property name="CGMESModelDetail" value="node-breaker"/>
        <iidm:substation id="_87f7002b-056f-4a6a-a872-1744eea757e3" name="Anvers" country="BE" geographicalTags="ELIA-Anvers">
            <iidm:property name="CGMES.regionName" value="BE"/>
            <iidm:property name="CGMES.subRegionId" value="_02047c0b-b5a4-4e0d-bae6-fc5437a55e74"/>
            <iidm:property name="CGMES.regionId" value="_7bf89875-1476-4d1a-a56d-a2965cce3575"/>
            <iidm:voltageLevel id="_69ef0dbd-da79-4eef-a02f-690cb8a28361" name="225.0" nominalV="225.0" lowVoltageLimit="202.5" highVoltageLimit="247.5" topologyKind="NODE_BREAKER">
                <iidm:nodeBreakerTopology>
                    <iidm:busbarSection id="_d6986ea6-fadc-4113-806a-a8f95f62c216" name="N1230992414" node="6">
                        <iidm:alias type="CGMES.Terminal1">_ad794c0e-b9ec-420b-ada1-97680e3dde05</iidm:alias>
                    </iidm:busbarSection>
                    <iidm:busbarSection id="_ef45b632-3028-4afe-bc4c-a4fa323d83fe" name="BE-Busbar_2" node="7">
                        <iidm:alias type="CGMES.Terminal1">_800ada75-8c8c-4568-aec5-20f799e45f3c</iidm:alias>
                    </iidm:busbarSection>
                    <iidm:busbarSection id="_8da0ff82-2f23-4231-ac9b-28b9c9141432" name="N1230992411" node="8">
                        <iidm:alias type="CGMES.Terminal1">_3c6d83a3-b5f9-41a2-a3d9-cf15d903ed0a</iidm:alias>
                    </iidm:busbarSection>
                    <iidm:switch id="_0a84038e-1952-4d9d-9909-3b49c364a1ac" name="CIRCB-1230992408" kind="BREAKER" retained="false" open="false" node1="11" node2="12">
                        <iidm:alias type="CGMES.Terminal2">_b741ce25-3f99-4aa8-9b03-d9de0ba6e342</iidm:alias>
                        <iidm:alias type="CGMES.Terminal1">_3fa4866b-1714-4be9-afab-3909ae092016</iidm:alias>
                    </iidm:switch>
                    <iidm:switch id="_484536e9-762a-49a3-9970-d60b9fae03fe" name="CIRCB-1230991544" kind="BREAKER" retained="false" open="false" node1="13" node2="14">
                        <iidm:alias type="CGMES.Terminal1">_310c303a-b0ed-4e42-9854-628f34c53d2b</iidm:alias>
                        <iidm:alias type="CGMES.Terminal2">_678a3049-afc0-432f-8f53-b30aa71907b2</iidm:alias>
                    </iidm:switch>
                    <iidm:switch id="_fd136c65-d001-41a1-adc7-c5430b5c5e72" name="CIRCB-1230992399" kind="BREAKER" retained="false" open="false" node1="15" node2="16">
                        <iidm:alias type="CGMES.Terminal2">_b6e23b90-9c48-4285-ac02-5b68d0c572a6</iidm:alias>
                        <iidm:alias type="CGMES.Terminal1">_e57dd4ed-5ea0-4374-9b36-40a294a8e2be</iidm:alias>
                    </iidm:switch>
                    <iidm:switch id="_925a3a38-cd26-4f89-8891-c5bc8494e1ae" name="CIRCB-1230991526" kind="BREAKER" retained="false" open="false" node1="17" node2="18">
                        <iidm:alias type="CGMES.Terminal1">_381fc1a6-63f7-4728-bb84-d4d7fe4f8794</iidm:alias>
                        <iidm:alias type="CGMES.Terminal2">_e1e6f751-259f-4182-b4e1-12eba54a54ce</iidm:alias>
                    </iidm:switch>
                    <iidm:internalConnection node1="6" node2="0"/>
                    <iidm:internalConnection node1="7" node2="1"/>
                    <iidm:internalConnection node1="8" node2="5"/>
                    <iidm:internalConnection node1="9" node2="1"/>
                    <iidm:internalConnection node1="10" node2="1"/>
                    <iidm:internalConnection node1="11" node2="0"/>
                    <iidm:internalConnection node1="12" node2="1"/>
                    <iidm:internalConnection node1="13" node2="1"/>
                    <iidm:internalConnection node1="14" node2="2"/>
                    <iidm:internalConnection node1="15" node2="5"/>
                    <iidm:internalConnection node1="16" node2="1"/>
                    <iidm:internalConnection node1="17" node2="4"/>
                    <iidm:internalConnection node1="18" node2="3"/>
                    <iidm:internalConnection node1="19" node2="0"/>
                    <iidm:internalConnection node1="20" node2="5"/>
                    <iidm:internalConnection node1="21" node2="1"/>
                    <iidm:internalConnection node1="22" node2="4"/>
                    <iidm:internalConnection node1="23" node2="2"/>
                    <iidm:internalConnection node1="24" node2="3"/>
                </iidm:nodeBreakerTopology>
                <iidm:load id="_b1480a00-b427-4001-a26c-51954d2bb7e9" name="L-1230804819" loadType="UNDEFINED" p0="1.0" q0="0.0" node="9">
                    <iidm:alias type="CGMES.Terminal1">_b9376bea-c75d-49f3-94ca-6a71fa0086a5</iidm:alias>
                    <iidm:property name="CGMES.originalClass" value="ConformLoad"/>
                </iidm:load>
                <iidm:danglingLine id="_17086487-56ba-4979-b8de-064025a6b4da" name="BE-Line_1" p0="-81.13571" q0="2.558644" r="2.2" x="68.2" g="3.08E-5" b="8.2938E-5" node="23" pairingKey="Border_ST23" selectedOperationalLimitsGroupId="_a5b37323-8f73-449a-8931-f73193d95587">
                    <iidm:alias type="CGMES.Terminal_Boundary">_1ef0715a-d5a9-477b-b6e7-b635529ac140</iidm:alias>
                    <iidm:alias type="CGMES.Terminal1">_70d962fb-a492-4c36-8cad-b5c584df53bd</iidm:alias>
                    <iidm:property name="CGMES.Terminal" value="_70d962fb-a492-4c36-8cad-b5c584df53bd"/>
                    <iidm:property name="lineEnergyIdentificationCodeEIC" value="10T-AT-DE-00016Z"/>
                    <iidm:property name="CGMES.Terminal_Boundary" value="_1ef0715a-d5a9-477b-b6e7-b635529ac140"/>
                    <iidm:property name="CGMES.EquivalentInjectionTerminal" value="_d238885e-d9b6-4edc-8567-6a68c605ed67"/>
                    <iidm:property name="CGMES.OperationalLimitSet_identifiers" value="{&quot;_a5b37323-8f73-449a-8931-f73193d95587&quot;:&quot;Limits at Port 2&quot;}"/>
                    <iidm:property name="CGMES.EquivalentInjection" value="_87ea56f3-962a-427a-85d6-13b1f9295174"/>
                    <iidm:property name="CGMES.ConnectivityNode_Boundary" value="_b66f15c0-cb6e-11e1-bcee-406c8f32ef58"/>
                    <iidm:operationalLimitsGroup id="_a5b37323-8f73-449a-8931-f73193d95587">
                        <iidm:currentLimits permanentLimit="1500.0">
                            <iidm:temporaryLimit name="TATL" acceptableDuration="10" value="500.0"/>
                        </iidm:currentLimits>
                    </iidm:operationalLimitsGroup>
                </iidm:danglingLine>
                <iidm:danglingLine id="_a16b4a6c-70b1-4abf-9a9d-bd0fa47f9fe4" name="BE-Line_7" p0="-101.0953" q0="12.36284" r="4.6" x="69.0" g="5.75E-5" b="2.1677E-5" node="24" pairingKey="Border_ST24" selectedOperationalLimitsGroupId="_00672e1a-599a-44f3-aeaa-5a3c99c29ba1">
                    <iidm:alias type="CGMES.Terminal_Boundary">_57ae9251-c022-4c67-a8eb-611ad54c963c</iidm:alias>
                    <iidm:alias type="CGMES.Terminal1">_5b2c65b0-68ce-4530-85b7-385346a3b5e1</iidm:alias>
                    <iidm:property name="CGMES.Terminal" value="_5b2c65b0-68ce-4530-85b7-385346a3b5e1"/>
                    <iidm:property name="lineEnergyIdentificationCodeEIC" value="10T-AT-DE-00017X"/>
                    <iidm:property name="CGMES.Terminal_Boundary" value="_57ae9251-c022-4c67-a8eb-611ad54c963c"/>
                    <iidm:property name="CGMES.EquivalentInjectionTerminal" value="_4a7363a4-0b21-4f65-8bba-33e3a8f6bac3"/>
                    <iidm:property name="CGMES.OperationalLimitSet_identifiers" value="{&quot;_00672e1a-599a-44f3-aeaa-5a3c99c29ba1&quot;:&quot;Limits at Port 2&quot;}"/>
                    <iidm:property name="CGMES.EquivalentInjection" value="_f7f61a91-eca2-4492-8bd7-9ec2b28fc837"/>
                    <iidm:property name="CGMES.ConnectivityNode_Boundary" value="_b6978550-cb6e-11e1-bcee-406c8f32ef58"/>
                    <iidm:operationalLimitsGroup id="_00672e1a-599a-44f3-aeaa-5a3c99c29ba1">
                        <iidm:currentLimits permanentLimit="1062.0">
                            <iidm:temporaryLimit name="TATL" acceptableDuration="10" value="500.0"/>
                        </iidm:currentLimits>
                    </iidm:operationalLimitsGroup>
                </iidm:danglingLine>
                <iidm:staticVarCompensator id="_3c69652c-ff14-4550-9a87-b6fdaccbb5f4" name="SVC-1230797516" bMin="-1.9753086419753085E-4" bMax="1.9753086419753085E-4" regulationMode="VOLTAGE" regulating="false" node="10">
                    <iidm:alias type="CGMES.Terminal1">_67bb74f1-8620-4a32-9d7d-a44092d11d22</iidm:alias>
                    <iidm:property name="CGMES.RegulatingControl" value="_caf65447-3cfb-48d7-aaaa-cd9af3d34261"/>
                </iidm:staticVarCompensator>
            </iidm:voltageLevel>
        </iidm:substation>
        <iidm:substation id="_37e14a0f-5e34-4647-a062-8bfd9305fa9d" name="PP_Brussels" country="BE" geographicalTags="ELIA-Brussels">
            <iidm:property name="CGMES.regionName" value="BE"/>
            <iidm:property name="CGMES.subRegionId" value="_61378219-a236-4070-bbec-4e30a6ac848d"/>
            <iidm:property name="CGMES.regionId" value="_7bf89875-1476-4d1a-a56d-a2965cce3575"/>
            <iidm:voltageLevel id="_8bbd7e74-ae20-4dce-8780-c20f8e18c2e0" name="110.0" nominalV="110.0" lowVoltageLimit="99.0" highVoltageLimit="121.0" topologyKind="NODE_BREAKER">
                <iidm:nodeBreakerTopology>
                    <iidm:busbarSection id="_364c9ca2-0d1d-4363-8f46-e586f8f66a8c" name="BE-Busbar_6" node="4">
                        <iidm:alias type="CGMES.Terminal1">_a1b46f53-86f1-497e-bf57-c3b6268bcd6c</iidm:alias>
                    </iidm:busbarSection>
                    <iidm:switch id="_2922c1dd-4113-466e-8cad-002572f3f557" name="BE_Breaker_3" kind="BREAKER" retained="false" open="false" node1="7" node2="8">
                        <iidm:alias type="CGMES.Terminal2">_b8bca219-a924-434f-8163-50aae6d486a7</iidm:alias>
                        <iidm:alias type="CGMES.Terminal1">_4bbaf84d-2437-44e1-a56c-e79723370e77</iidm:alias>
                    </iidm:switch>
                    <iidm:switch id="_6e86cd52-4594-435e-92ce-6dc673288ab4" name="BE_Breaker_5" kind="BREAKER" retained="false" open="false" node1="9" node2="10">
                        <iidm:alias type="CGMES.Terminal2">_61562178-c201-43c7-b56d-a300ab07c723</iidm:alias>
                        <iidm:alias type="CGMES.Terminal1">_5245aa5c-9600-4632-95db-e981a19ed857</iidm:alias>
                    </iidm:switch>
                    <iidm:switch id="_38dfcc80-600f-44e2-8f71-fb595b4f00ac" name="BE_Breaker_1" kind="BREAKER" retained="false" open="false" node1="11" node2="12">
                        <iidm:alias type="CGMES.Terminal2">_95f1d705-35fa-4102-ba5b-43dfe7a0e0cc</iidm:alias>
                        <iidm:alias type="CGMES.Terminal1">_9f5dbaf3-e384-4e86-9d49-f43c30b4e354</iidm:alias>
                    </iidm:switch>
                    <iidm:internalConnection node1="4" node2="2"/>
                    <iidm:internalConnection node1="5" node2="2"/>
                    <iidm:internalConnection node1="6" node2="2"/>
                    <iidm:internalConnection node1="7" node2="2"/>
                    <iidm:internalConnection node1="8" node2="0"/>
                    <iidm:internalConnection node1="9" node2="3"/>
                    <iidm:internalConnection node1="10" node2="2"/>
                    <iidm:internalConnection node1="11" node2="2"/>
                    <iidm:internalConnection node1="12" node2="1"/>
                    <iidm:internalConnection node1="13" node2="0"/>
                    <iidm:internalConnection node1="14" node2="1"/>
                    <iidm:internalConnection node1="15" node2="3"/>
                </iidm:nodeBreakerTopology>
                <iidm:load id="_cb459405-cc14-4215-a45c-416789205904" name="BE-Load_1" loadType="UNDEFINED" p0="200.0" q0="90.0" node="5">
                    <iidm:alias type="CGMES.Terminal1">_cbdf1842-74ed-4fce-a5d4-0296c82cbc92</iidm:alias>
                    <iidm:property name="CGMES.originalClass" value="ConformLoad"/>
                </iidm:load>
                <iidm:shunt id="_d771118f-36e9-4115-a128-cc3d9ce3e3da" name="BE_S1" sectionCount="1" voltageRegulatorOn="false" targetV="110.0" targetDeadband="0.5" node="6">
                    <iidm:alias type="CGMES.Terminal1">_d5e2e58e-ccf6-47d9-b3bb-3088eb7a9b6c</iidm:alias>
                    <iidm:property name="CGMES.RegulatingControl" value="_4d50f86d-0d12-4ca3-9430-56bb05f9eee6"/>
                    <iidm:shuntLinearModel bPerSection="0.02479339" gPerSection="0.0" maximumSectionCount="1"/>
                </iidm:shunt>
            </iidm:voltageLevel>
            <iidm:voltageLevel id="_469df5f7-058f-4451-a998-57a48e8a56fe" name="380.0" nominalV="380.0" lowVoltageLimit="342.0" highVoltageLimit="418.0" topologyKind="NODE_BREAKER">
                <iidm:nodeBreakerTopology>
                    <iidm:busbarSection id="_64901aec-5a8a-4bcb-8ca7-a3ddbfcd0e6c" name="BE-Busbar_1" node="5">
                        <iidm:alias type="CGMES.Terminal1">_fa9e0f4d-8a2f-45e1-9e36-3611600d1c94</iidm:alias>
                    </iidm:busbarSection>
                    <iidm:switch id="_6b564930-b5e2-49d3-9d06-e1de28d6fd65" name="BE_Breaker_2" kind="BREAKER" retained="false" open="false" node1="7" node2="8">
                        <iidm:alias type="CGMES.Terminal2">_907dbcfe-2037-4f84-97f1-6e59f782168e</iidm:alias>
                        <iidm:alias type="CGMES.Terminal1">_345d8528-1a7e-4245-92d6-15db7a7e3c86</iidm:alias>
                    </iidm:switch>
                    <iidm:switch id="_0e8cd279-ad5d-485a-b3a9-093ae8714b72" name="CIRCB-1230991736" kind="BREAKER" retained="false" open="false" node1="9" node2="10">
                        <iidm:alias type="CGMES.Terminal2">_36fedfd8-280b-4ee4-b58a-cd2063e5d706</iidm:alias>
                        <iidm:alias type="CGMES.Terminal1">_0cca0f16-c476-4a99-b289-d660ff57b891</iidm:alias>
                    </iidm:switch>
                    <iidm:switch id="_96c2b5c8-8e28-4b08-96d2-ca9b09cdbd83" name="BE_Breaker_12" kind="BREAKER" retained="false" open="false" node1="11" node2="12">
                        <iidm:alias type="CGMES.Terminal2">_a45d705f-46f6-4bde-8790-11a762da8c01</iidm:alias>
                        <iidm:alias type="CGMES.Terminal1">_5c206db8-ef8c-4e53-b2b9-38b52b194c5a</iidm:alias>
                    </iidm:switch>
                    <iidm:switch id="_14d55344-c118-4f54-a430-72f16d12bf7b" name="CIRCB-1230991718" kind="BREAKER" retained="false" open="false" node1="13" node2="14">
                        <iidm:alias type="CGMES.Terminal1">_042688a6-140f-473c-98f9-94a3cfdc00d3</iidm:alias>
                        <iidm:alias type="CGMES.Terminal2">_6811721b-252c-45fd-8474-6db1e7d5739e</iidm:alias>
                    </iidm:switch>
                    <iidm:internalConnection node1="5" node2="2"/>
                    <iidm:internalConnection node1="6" node2="2"/>
                    <iidm:internalConnection node1="7" node2="4"/>
                    <iidm:internalConnection node1="8" node2="2"/>
                    <iidm:internalConnection node1="9" node2="2"/>
                    <iidm:internalConnection node1="10" node2="0"/>
                    <iidm:internalConnection node1="11" node2="1"/>
                    <iidm:internalConnection node1="12" node2="2"/>
                    <iidm:internalConnection node1="13" node2="2"/>
                    <iidm:internalConnection node1="14" node2="3"/>
                    <iidm:internalConnection node1="15" node2="4"/>
                    <iidm:internalConnection node1="16" node2="1"/>
                    <iidm:internalConnection node1="17" node2="2"/>
                    <iidm:internalConnection node1="18" node2="0"/>
                    <iidm:internalConnection node1="19" node2="3"/>
                </iidm:nodeBreakerTopology>
                <iidm:shunt id="_002b0a40-3957-46db-b84a-30420083558f" name="BE_S2" sectionCount="1" voltageRegulatorOn="false" targetV="380.0" targetDeadband="0.5" node="6">
                    <iidm:alias type="CGMES.Terminal1">_22af3121-1a66-4546-bd80-4371f417c644</iidm:alias>
                    <iidm:property name="CGMES.RegulatingControl" value="_bee06911-8d5c-44c4-b2d2-5c22a461b5a0"/>
                    <iidm:shuntNonLinearModel>
                        <iidm:section b="3.459834E-4" g="2.18E-6"/>
                        <iidm:section b="5.189751E-4" g="4.36E-6"/>
                        <iidm:section b="6.57964E-4" g="6.54E-6"/>
                        <iidm:section b="7.269390700000001E-4" g="8.72E-6"/>
                        <iidm:section b="7.6191137E-4" g="1.0899999999999999E-5"/>
                    </iidm:shuntNonLinearModel>
                    <iidm:regulatingTerminal id="_ed0c5d75-4a54-43c8-b782-b20d7431630b"/>
                </iidm:shunt>
                <iidm:danglingLine id="_ed0c5d75-4a54-43c8-b782-b20d7431630b" name="BE-Line_4" p0="-10.13586" q0="74.35732" r="0.24" x="2.0" g="4.0E-5" b="2.51956E-5" node="17" pairingKey="Border_MA11" selectedOperationalLimitsGroupId="_67fa7320-7477-47e9-89ff-e3a407644aef">
                    <iidm:alias type="CGMES.Terminal_Boundary">_f9f29835-8a31-4310-9780-b1ad26f3cbb0</iidm:alias>
                    <iidm:alias type="CGMES.Terminal1">_c14d2036-72ec-4df3-b1b7-75d8afd9a1fe</iidm:alias>
                    <iidm:property name="CGMES.Terminal" value="_c14d2036-72ec-4df3-b1b7-75d8afd9a1fe"/>
                    <iidm:property name="lineEnergyIdentificationCodeEIC" value="10T-AT-SI-00001T"/>
                    <iidm:property name="CGMES.Terminal_Boundary" value="_f9f29835-8a31-4310-9780-b1ad26f3cbb0"/>
                    <iidm:property name="CGMES.EquivalentInjectionTerminal" value="_c41978db-794b-4bae-953e-60fc519e87dd"/>
                    <iidm:property name="CGMES.OperationalLimitSet_identifiers" value="{&quot;_67fa7320-7477-47e9-89ff-e3a407644aef&quot;:&quot;Limits at Port 1&quot;}"/>
                    <iidm:property name="CGMES.EquivalentInjection" value="_14b352cb-5574-40c5-bf83-0ed3574554a3"/>
                    <iidm:property name="CGMES.ConnectivityNode_Boundary" value="_b67cf870-cb6e-11e1-bcee-406c8f32ef58"/>
                    <iidm:operationalLimitsGroup id="_67fa7320-7477-47e9-89ff-e3a407644aef">
                        <iidm:currentLimits permanentLimit="1226.0">
                            <iidm:temporaryLimit name="TATL" acceptableDuration="10" value="500.0"/>
                        </iidm:currentLimits>
                    </iidm:operationalLimitsGroup>
                </iidm:danglingLine>
                <iidm:danglingLine id="_78736387-5f60-4832-b3fe-d50daf81b0a6" name="BE-Line_3" p0="-15.32802" q0="70.48819" r="1.05" x="12.0" g="6.0E-5" b="1.49854E-4" node="18" pairingKey="Border_AL11" selectedOperationalLimitsGroupId="_99941f7a-11bb-4a7b-928b-ef8145db7799">
                    <iidm:alias type="CGMES.Terminal_Boundary">_f3b56334-4638-49d3-a6a0-3f417422b8f5</iidm:alias>
                    <iidm:alias type="CGMES.Terminal1">_231a4cf8-5069-4d53-96e4-e839f073f1ea</iidm:alias>
                    <iidm:property name="CGMES.Terminal" value="_231a4cf8-5069-4d53-96e4-e839f073f1ea"/>
                    <iidm:property name="lineEnergyIdentificationCodeEIC" value="10T-ES-PT-10004U"/>
                    <iidm:property name="CGMES.Terminal_Boundary" value="_f3b56334-4638-49d3-a6a0-3f417422b8f5"/>
                    <iidm:property name="CGMES.EquivalentInjectionTerminal" value="_53072f42-f77b-47e2-bd9a-e097c910b173"/>
                    <iidm:property name="CGMES.OperationalLimitSet_identifiers" value="{&quot;_99941f7a-11bb-4a7b-928b-ef8145db7799&quot;:&quot;Limits at Port 1&quot;}"/>
                    <iidm:property name="CGMES.EquivalentInjection" value="_24413233-26c3-4f7e-9f72-4461796938be"/>
                    <iidm:property name="CGMES.ConnectivityNode_Boundary" value="_b675a570-cb6e-11e1-bcee-406c8f32ef58"/>
                    <iidm:operationalLimitsGroup id="_99941f7a-11bb-4a7b-928b-ef8145db7799">
                        <iidm:currentLimits permanentLimit="1233.9">
                            <iidm:temporaryLimit name="TATL" acceptableDuration="10" value="500.0"/>
                        </iidm:currentLimits>
                    </iidm:operationalLimitsGroup>
                </iidm:danglingLine>
                <iidm:danglingLine id="_b18cd1aa-7808-49b9-a7cf-605eaf07b006" name="BE-Line_5" p0="-29.63637" q0="133.1999" r="0.42" x="6.3" g="4.2E-5" b="6.59734E-5" node="19" pairingKey="Border_GY11" selectedOperationalLimitsGroupId="_4af71c73-fd57-45d2-aa83-f1b52fcc3bee">
                    <iidm:alias type="CGMES.Terminal_Boundary">_02a244ca-8bcb-4e25-8613-e948b8ba1f22</iidm:alias>
                    <iidm:alias type="CGMES.Terminal1">_051d49ba-4360-4372-86bf-50eb8cf29778</iidm:alias>
                    <iidm:property name="CGMES.Terminal" value="_051d49ba-4360-4372-86bf-50eb8cf29778"/>
                    <iidm:property name="lineEnergyIdentificationCodeEIC" value="10T-AT-HU-00002U"/>
                    <iidm:property name="CGMES.Terminal_Boundary" value="_02a244ca-8bcb-4e25-8613-e948b8ba1f22"/>
                    <iidm:property name="CGMES.EquivalentInjectionTerminal" value="_b9539c41-d114-4280-8a54-8ecec398091e"/>
                    <iidm:property name="CGMES.OperationalLimitSet_identifiers" value="{&quot;_4af71c73-fd57-45d2-aa83-f1b52fcc3bee&quot;:&quot;Limits at Port 1&quot;}"/>
                    <iidm:property name="CGMES.EquivalentInjection" value="_6f014d4c-c1b0-4eed-8d6d-bae3bc87afcf"/>
                    <iidm:property name="CGMES.ConnectivityNode_Boundary" value="_b67c8340-cb6e-11e1-bcee-406c8f32ef58"/>
                    <iidm:operationalLimitsGroup id="_4af71c73-fd57-45d2-aa83-f1b52fcc3bee">
                        <iidm:currentLimits permanentLimit="1876.0">
                            <iidm:temporaryLimit name="TATL" acceptableDuration="10" value="500.0"/>
                        </iidm:currentLimits>
                    </iidm:operationalLimitsGroup>
                </iidm:danglingLine>
            </iidm:voltageLevel>
            <iidm:voltageLevel id="_929ba893-c9dc-44d7-b1fd-30834bd3ab85" name="21.0" nominalV="21.0" lowVoltageLimit="18.9" highVoltageLimit="23.1" topologyKind="NODE_BREAKER">
                <iidm:nodeBreakerTopology>
                    <iidm:switch id="_969470b9-e74c-40d2-b3f7-bcfd88400fd1" name="BE_Breaker_10" kind="BREAKER" retained="false" open="false" node1="3" node2="4">
                        <iidm:alias type="CGMES.Terminal2">_b3bf6cbd-abe8-42b6-95f4-20682475b484</iidm:alias>
                        <iidm:alias type="CGMES.Terminal1">_f392d0d3-47cb-4ec1-925f-b3762d4a787c</iidm:alias>
                    </iidm:switch>
                    <iidm:internalConnection node1="2" node2="1"/>
                    <iidm:internalConnection node1="3" node2="1"/>
                    <iidm:internalConnection node1="4" node2="0"/>
                    <iidm:internalConnection node1="5" node2="0"/>
                </iidm:nodeBreakerTopology>
                <iidm:generator id="_550ebe0d-f2b2-48c1-991f-cebea43a21aa" name="BE-G2" energySource="OTHER" minP="50.0" maxP="200.0" ratedS="300.0" voltageRegulatorOn="true" targetP="118.0" targetV="21.987" targetQ="18.7203" node="2">
                    <iidm:alias type="CGMES.Terminal1">_4bb5407b-b4a5-416c-80ad-1a778ada2b9b</iidm:alias>
                    <iidm:property name="CGMES.synchronousMachineType" value="generator"/>
                    <iidm:property name="CGMES.synchronousMachineOperatingMode" value="generator"/>
                    <iidm:property name="CGMES.originalClass" value="SynchronousMachine"/>
                    <iidm:property name="CGMES.GeneratingUnit" value="_5b7a4d43-09ec-4033-882d-64a76d557631"/>
                    <iidm:property name="CGMES.RegulatingControl" value="_84bf5be8-eb59-4555-b131-fce4d2d7775d"/>
                    <iidm:minMaxReactiveLimits minQ="-200.0" maxQ="200.0"/>
                </iidm:generator>
            </iidm:voltageLevel>
            <iidm:voltageLevel id="_b10b171b-3bc5-4849-bb1f-61ed9ea1ec7c" name="225.0" nominalV="225.0" lowVoltageLimit="202.5" highVoltageLimit="247.5" topologyKind="NODE_BREAKER">
                <iidm:nodeBreakerTopology>
                    <iidm:busbarSection id="_5caf27ed-d2f8-458a-834a-6b3193a982e6" name="BE-Busbar_3" node="4">
                        <iidm:alias type="CGMES.Terminal1">_62fc0a4e-00aa-4bf7-b1a0-3a5b2c0b5492</iidm:alias>
                    </iidm:busbarSection>
                    <iidm:busbarSection id="_c8ce5e08-5ee3-42d9-aa44-5792db252d9f" name="N1230992291" node="5">
                        <iidm:alias type="CGMES.Terminal1">_302fe23a-f64d-41bd-8a81-78130433916d</iidm:alias>
                    </iidm:busbarSection>
                    <iidm:busbarSection id="_63f25be7-7592-4cf1-8401-5772046ef2ae" name="N1230992288" node="6">
                        <iidm:alias type="CGMES.Terminal1">_8f1c492f-a7cc-4160-9a14-54f1743e4850</iidm:alias>
                    </iidm:busbarSection>
                    <iidm:switch id="_3b394dab-ab47-4022-98be-8123c6dfe7d4" name="CIRCB-1230992276" kind="BREAKER" retained="false" open="false" node1="8" node2="9">
                        <iidm:alias type="CGMES.Terminal1">_756dff85-b2c8-4a06-9a4c-4dde854e668b</iidm:alias>
                        <iidm:alias type="CGMES.Terminal2">_3f8b7c82-ca57-401a-9e2d-b719f8c83030</iidm:alias>
                    </iidm:switch>
                    <iidm:switch id="_ddc148fc-3abd-459d-aec1-396283e0def6" name="CIRCB-1230992285" kind="BREAKER" retained="false" open="false" node1="10" node2="11">
                        <iidm:alias type="CGMES.Terminal2">_fd2867a9-0c57-4cf2-acfb-439c4039b06b</iidm:alias>
                        <iidm:alias type="CGMES.Terminal1">_b501caa7-949f-49c6-b4d4-f50ef3625ede</iidm:alias>
                    </iidm:switch>
                    <iidm:switch id="_a603d890-5d9d-42ef-98d0-acf47d121c0e" name="BE_Breaker_4" kind="BREAKER" retained="false" open="false" node1="12" node2="13">
                        <iidm:alias type="CGMES.Terminal1">_529a048e-7681-4e59-aba1-f7474a562cba</iidm:alias>
                        <iidm:alias type="CGMES.Terminal2">_68d47f87-1a1f-4c63-80ca-d3becb4a47f9</iidm:alias>
                    </iidm:switch>
                    <iidm:internalConnection node1="4" node2="1"/>
                    <iidm:internalConnection node1="5" node2="2"/>
                    <iidm:internalConnection node1="6" node2="3"/>
                    <iidm:internalConnection node1="7" node2="1"/>
                    <iidm:internalConnection node1="8" node2="1"/>
                    <iidm:internalConnection node1="9" node2="3"/>
                    <iidm:internalConnection node1="10" node2="1"/>
                    <iidm:internalConnection node1="11" node2="2"/>
                    <iidm:internalConnection node1="12" node2="0"/>
                    <iidm:internalConnection node1="13" node2="1"/>
                    <iidm:internalConnection node1="14" node2="2"/>
                    <iidm:internalConnection node1="15" node2="3"/>
                    <iidm:internalConnection node1="16" node2="0"/>
                    <iidm:internalConnection node1="17" node2="1"/>
                </iidm:nodeBreakerTopology>
                <iidm:load id="_1c6beed6-1acf-42e7-ba55-0cc9f04bddd8" name="BE-Load_2" loadType="UNDEFINED" p0="200.0" q0="50.0" node="7">
                    <iidm:alias type="CGMES.Terminal1">_a036b765-1669-4f64-acd3-1e8fbd513312</iidm:alias>
                    <iidm:property name="CGMES.originalClass" value="ConformLoad"/>
                </iidm:load>
            </iidm:voltageLevel>
            <iidm:voltageLevel id="_4ba71b59-ee2f-450b-9f7d-cc2f1cc5e386" name="10.5" nominalV="10.5" lowVoltageLimit="9.45" highVoltageLimit="11.55" topologyKind="NODE_BREAKER">
                <iidm:nodeBreakerTopology>
                    <iidm:busbarSection id="_fd649fe1-bdf5-4062-98ea-bbb66f50402d" name="BE-Busbar_4" node="1">
                        <iidm:alias type="CGMES.Terminal1">_65b8c937-9b25-4b9e-addf-602dbc1337f9</iidm:alias>
                    </iidm:busbarSection>
                    <iidm:internalConnection node1="1" node2="0"/>
                    <iidm:internalConnection node1="2" node2="0"/>
                    <iidm:internalConnection node1="3" node2="0"/>
                </iidm:nodeBreakerTopology>
                <iidm:generator id="_3a3b27be-b18b-4385-b557-6735d733baf0" name="BE-G1" energySource="OTHER" minP="-100.0" maxP="200.0" ratedS="300.0" voltageRegulatorOn="true" targetP="90.0" targetV="115.5" targetQ="100.256" node="2">
                    <iidm:alias type="CGMES.Terminal1">_beffa353-7d10-421d-9c08-036b744b1cee</iidm:alias>
                    <iidm:property name="CGMES.synchronousMachineType" value="generatorOrMotor"/>
                    <iidm:property name="CGMES.synchronousMachineOperatingMode" value="generator"/>
                    <iidm:property name="CGMES.originalClass" value="SynchronousMachine"/>
                    <iidm:property name="CGMES.GeneratingUnit" value="_18993b11-2966-4bce-bab9-d86103f83b53"/>
                    <iidm:property name="CGMES.RegulatingControl" value="_6ba406ce-78cf-4485-9b01-a34e584f1a8d"/>
                    <iidm:regulatingTerminal id="_d771118f-36e9-4115-a128-cc3d9ce3e3da"/>
                    <iidm:reactiveCapabilityCurve>
                        <iidm:point p="-100.0" minQ="-200.0" maxQ="200.0"/>
                        <iidm:point p="0.0" minQ="-300.0" maxQ="300.0"/>
                        <iidm:point p="200.0" minQ="-200.0" maxQ="200.0"/>
                    </iidm:reactiveCapabilityCurve>
                </iidm:generator>
            </iidm:voltageLevel>
            <iidm:twoWindingsTransformer id="_b94318f6-6d24-4f56-96b9-df2531ad6543" name="BE-TR2_2" r="0.2057" x="2.78472" g="0.0" b="0.0" ratedU1="220.0" ratedU2="110.0" ratedS="650.0" voltageLevelId1="_b10b171b-3bc5-4849-bb1f-61ed9ea1ec7c" node1="16" voltageLevelId2="_8bbd7e74-ae20-4dce-8780-c20f8e18c2e0" node2="13" selectedOperationalLimitsGroupId1="_88aa13e4-d3fe-4c47-9e47-39f8bb805e73" selectedOperationalLimitsGroupId2="_d6f4f557-12b9-4b53-9e99-2d2ed8cd11dd">
                <iidm:alias type="CGMES.Terminal2">_ab7ece75-d726-48c8-a924-b0a9325e6d51</iidm:alias>
                <iidm:alias type="CGMES.TransformerEnd1">_3c59d1b0-1ee9-4ca3-9086-4fe102b51b21</iidm:alias>
                <iidm:alias type="CGMES.PhaseTapChanger1">_36b83adb-3d45-4693-8967-96627b5f9ec9</iidm:alias>
                <iidm:alias type="CGMES.Terminal1">_4c19ace6-c825-4c5b-87d9-031e6e6a3379</iidm:alias>
                <iidm:alias type="CGMES.TransformerEnd2">_ba56158e-0c51-448d-999b-44cb0b3cebf5</iidm:alias>
                <iidm:property name="CGMES.OperationalLimitSet_identifiers" value="{&quot;_d6f4f557-12b9-4b53-9e99-2d2ed8cd11dd&quot;:&quot;Limits at Port 2&quot;,&quot;_88aa13e4-d3fe-4c47-9e47-39f8bb805e73&quot;:&quot;Limits at Port 1&quot;}"/>
                <iidm:phaseTapChanger regulating="false" lowTapPosition="1" tapPosition="10" loadTapChangingCapabilities="true" regulationMode="CURRENT_LIMITER">
                    <iidm:step r="0.0" x="6.666738487172854" g="0.0" b="0.0" rho="1.14505222931285" alpha="4.926567934889113"/>
                    <iidm:step r="0.0" x="5.601912201027185" g="0.0" b="0.0" rho="1.1317335959045691" alpha="4.4625049779277965"/>
                    <iidm:step r="0.0" x="4.629679504981145" g="0.0" b="0.0" rho="1.1186503607803493" alpha="4.009142308337196"/>
                    <iidm:step r="0.0" x="3.7500403990347353" g="0.0" b="0.0" rho="1.105799285684086" alpha="3.5661689080738133"/>
                    <iidm:step r="0.0" x="2.96299488318794" g="0.0" b="0.0" rho="1.0931769923157548" alpha="3.133282879390916"/>
                    <iidm:step r="0.0" x="2.268542957440758" g="0.0" b="0.0" rho="1.0807799860839817" alpha="2.7101913084587235"/>
                    <iidm:step r="0.0" x="1.6666846217932214" g="0.0" b="0.0" rho="1.0686046775541467" alpha="2.296610111393503"/>
                    <iidm:step r="0.0" x="1.1574198762452823" g="0.0" b="0.0" rho="1.0566474017760137" alpha="1.892263865774221"/>
                    <iidm:step r="0.0" x="0.740748720796989" g="0.0" b="0.0" rho="1.0449044356636736" alpha="1.496885630374893"/>
                    <iidm:step r="0.0" x="0.4166711554483093" g="0.0" b="0.0" rho="1.0333720135895301" alpha="1.1102167555229658"/>
                    <iidm:step r="0.0" x="0.18518718019924324" g="0.0" b="0.0" rho="1.0220463413432221" alpha="0.7320066862066437"/>
                    <iidm:step r="0.0" x="0.04629679504980683" g="0.0" b="0.0" rho="1.0109236085958764" alpha="0.36201275979482317"/>
                    <iidm:step r="0.0" x="0.0" g="0.0" b="0.0" rho="1.0" alpha="-0.0"/>
                    <iidm:step r="0.0" x="0.04629679504980683" g="0.0" b="0.0" rho="0.9892717050456789" alpha="-0.3542590914949466"/>
                    <iidm:step r="0.0" x="0.18518718019924324" g="0.0" b="0.0" rho="0.9787349267845926" alpha="-0.7009847445128217"/>
                    <iidm:step r="0.0" x="0.4166711554483093" g="0.0" b="0.0" rho="0.9683858895247094" alpha="-1.040390129895497"/>
                    <iidm:step r="0.0" x="0.740748720796989" g="0.0" b="0.0" rho="0.958220845590376" alpha="-1.3726815681386877"/>
                    <iidm:step r="0.0" x="1.1574198762452823" g="0.0" b="0.0" rho="0.9482360812348898" alpha="-1.698058736365395"/>
                    <iidm:step r="0.0" x="1.6666846217932054" g="0.0" b="0.0" rho="0.9384279217854995" alpha="-2.016714872973585"/>
                    <iidm:step r="0.0" x="2.268542957440758" g="0.0" b="0.0" rho="0.9287927360941372" alpha="-2.32883697939856"/>
                    <iidm:step r="0.0" x="2.96299488318794" g="0.0" b="0.0" rho="0.9193269403610014" alpha="-2.6346060185232267"/>
                    <iidm:step r="0.0" x="3.7500403990347353" g="0.0" b="0.0" rho="0.9100270013923849" alpha="-2.9341971093513304"/>
                    <iidm:step r="0.0" x="4.629679504981145" g="0.0" b="0.0" rho="0.9008894393488354" alpha="-3.227779717630807"/>
                    <iidm:step r="0.0" x="5.601912201027185" g="0.0" b="0.0" rho="0.8919108300348412" alpha="-3.515517842177712"/>
                    <iidm:step r="0.0" x="6.666738487172854" g="0.0" b="0.0" rho="0.8830878067767173" alpha="-3.797570196706609"/>
                </iidm:phaseTapChanger>
                <iidm:operationalLimitsGroup1 id="_88aa13e4-d3fe-4c47-9e47-39f8bb805e73">
                    <iidm:currentLimits permanentLimit="1705.808"/>
                </iidm:operationalLimitsGroup1>
                <iidm:operationalLimitsGroup2 id="_d6f4f557-12b9-4b53-9e99-2d2ed8cd11dd">
                    <iidm:currentLimits permanentLimit="3411.617"/>
                </iidm:operationalLimitsGroup2>
            </iidm:twoWindingsTransformer>
            <iidm:twoWindingsTransformer id="_a708c3bc-465d-4fe7-b6ef-6fa6408a62b0" name="BE-TR2_1" r="0.20476920750000005" x="1.0979918125" g="0.0" b="0.0" ratedU1="400.0" ratedU2="110.0" ratedS="650.0" voltageLevelId1="_469df5f7-058f-4451-a998-57a48e8a56fe" node1="15" voltageLevelId2="_8bbd7e74-ae20-4dce-8780-c20f8e18c2e0" node2="14" selectedOperationalLimitsGroupId1="_0b7c4239-3c1b-438e-994d-f2a402ba743c" selectedOperationalLimitsGroupId2="_3b5aa2ae-a3fb-4ea6-9941-f7ccd2c6d925">
                <iidm:alias type="CGMES.Terminal2">_2cd21c77-b8b1-4896-95fb-240f45b9ac89</iidm:alias>
                <iidm:alias type="CGMES.PhaseTapChanger1">_63454a73-f439-45bb-951a-e7b193986571</iidm:alias>
                <iidm:alias type="CGMES.TransformerEnd1">_bf76ac9d-0144-48f5-a24a-34ae15a455fb</iidm:alias>
                <iidm:alias type="CGMES.TransformerEnd2">_e22f3c30-63f5-47bf-a8c4-fee2483d426c</iidm:alias>
                <iidm:alias type="CGMES.Terminal1">_c3774d3f-f48c-4954-a0cf-b4572eb714fd</iidm:alias>
                <iidm:property name="CGMES.OperationalLimitSet_identifiers" value="{&quot;_3b5aa2ae-a3fb-4ea6-9941-f7ccd2c6d925&quot;:&quot;Limits at Port 2&quot;,&quot;_0b7c4239-3c1b-438e-994d-f2a402ba743c&quot;:&quot;Limits at Port 1&quot;}"/>
                <iidm:phaseTapChanger regulating="false" lowTapPosition="1" tapPosition="10" targetDeadband="1.625" loadTapChangingCapabilities="true" regulationMode="ACTIVE_POWER_CONTROL" regulationValue="-65.0">
                    <iidm:terminalRef id="_a708c3bc-465d-4fe7-b6ef-6fa6408a62b0" side="TWO"/>
                    <iidm:step r="0.0" x="16.666689625247088" g="0.0" b="0.0" rho="1.0" alpha="8.578306657638038"/>
                    <iidm:step r="0.0" x="14.017172031715235" g="0.0" b="0.0" rho="1.0" alpha="7.865792544461077"/>
                    <iidm:step r="0.0" x="11.59390558020863" g="0.0" b="0.0" rho="1.0" alpha="7.152668749994702"/>
                    <iidm:step r="0.0" x="9.398011466189136" g="0.0" b="0.0" rho="1.0" alpha="6.43898979370566"/>
                    <iidm:step r="0.0" x="7.4305080651212405" g="0.0" b="0.0" rho="1.0" alpha="5.724810452223496"/>
                    <iidm:step r="0.0" x="5.692309757556528" g="0.0" b="0.0" rho="1.0" alpha="5.010185734482799"/>
                    <iidm:step r="0.0" x="4.184225870966231" g="0.0" b="0.0" rho="1.0" alpha="4.295170856597007"/>
                    <iidm:step r="0.0" x="2.9069597405986505" g="0.0" b="0.0" rho="1.0" alpha="3.579821216492139"/>
                    <iidm:step r="0.0" x="1.8611078913888883" g="0.0" b="0.0" rho="1.0" alpha="2.864192368329293"/>
                    <iidm:step r="0.0" x="1.047159342692909" g="0.0" b="0.0" rho="1.0" alpha="2.1483399967452415"/>
                    <iidm:step r="0.0" x="0.4654950373556615" g="0.0" b="0.0" rho="1.0" alpha="1.432319890940817"/>
                    <iidm:step r="0.0" x="0.11638739635614605" g="0.0" b="0.0" rho="1.0" alpha="0.7161879186471423"/>
                    <iidm:step r="0.0" x="0.0" g="0.0" b="0.0" rho="1.0" alpha="-0.0"/>
                    <iidm:step r="0.0" x="0.11638739635614605" g="0.0" b="0.0" rho="1.0" alpha="-0.7161879186471423"/>
                    <iidm:step r="0.0" x="0.4654950373556615" g="0.0" b="0.0" rho="1.0" alpha="-1.432319890940817"/>
                    <iidm:step r="0.0" x="1.047159342692909" g="0.0" b="0.0" rho="1.0" alpha="-2.1483399967452415"/>
                    <iidm:step r="0.0" x="1.8611078913888883" g="0.0" b="0.0" rho="1.0" alpha="-2.864192368329293"/>
                    <iidm:step r="0.0" x="2.9069597405986505" g="0.0" b="0.0" rho="1.0" alpha="-3.579821216492139"/>
                    <iidm:step r="0.0" x="4.184225870966231" g="0.0" b="0.0" rho="1.0" alpha="-4.295170856597007"/>
                    <iidm:step r="0.0" x="5.692309757556528" g="0.0" b="0.0" rho="1.0" alpha="-5.010185734482799"/>
                    <iidm:step r="0.0" x="7.4305080651212405" g="0.0" b="0.0" rho="1.0" alpha="-5.724810452223496"/>
                    <iidm:step r="0.0" x="9.398011466189136" g="0.0" b="0.0" rho="1.0" alpha="-6.43898979370566"/>
                    <iidm:step r="0.0" x="11.59390558020863" g="0.0" b="0.0" rho="1.0" alpha="-7.152668749994702"/>
                    <iidm:step r="0.0" x="14.017172031715235" g="0.0" b="0.0" rho="1.0" alpha="-7.865792544461077"/>
                    <iidm:step r="0.0" x="16.666689625247088" g="0.0" b="0.0" rho="1.0" alpha="-8.578306657638038"/>
                </iidm:phaseTapChanger>
                <iidm:operationalLimitsGroup1 id="_0b7c4239-3c1b-438e-994d-f2a402ba743c">
                    <iidm:currentLimits permanentLimit="938.1946"/>
                </iidm:operationalLimitsGroup1>
                <iidm:operationalLimitsGroup2 id="_3b5aa2ae-a3fb-4ea6-9941-f7ccd2c6d925">
                    <iidm:currentLimits permanentLimit="3411.617"/>
                </iidm:operationalLimitsGroup2>
            </iidm:twoWindingsTransformer>
            <iidm:twoWindingsTransformer id="_e482b89a-fa84-4ea9-8e70-a83d44790957" name="BE-TR2_3" r="9.481455983629422E-4" x="0.05291146110953372" g="0.0019138297721711202" b="-0.00917007126111426" ratedU1="110.3438" ratedU2="10.5" ratedS="250.0" voltageLevelId1="_8bbd7e74-ae20-4dce-8780-c20f8e18c2e0" node1="15" voltageLevelId2="_4ba71b59-ee2f-450b-9f7d-cc2f1cc5e386" node2="3" selectedOperationalLimitsGroupId1="_e40d809b-2f3f-4866-817d-7acec0fde34f" selectedOperationalLimitsGroupId2="_40b75fae-2597-40df-98d2-8a0d83c238fd">
                <iidm:alias type="CGMES.Terminal1">_ca7974cf-b25e-4898-9221-7154233e5eb2</iidm:alias>
                <iidm:alias type="CGMES.TransformerEnd2">_35651e25-a77a-46a1-92f4-443d6acce90e</iidm:alias>
                <iidm:alias type="CGMES.Terminal2">_1182d878-2eaa-4eec-91be-ce7b2b1e7f9a</iidm:alias>
                <iidm:alias type="CGMES.TransformerEnd1">_f58281c5-862a-465e-97ec-d809be6e24ab</iidm:alias>
                <iidm:alias type="CGMES.RatioTapChanger2">_83cc66dd-8d93-4a2c-8103-f1f5a9cf7e2e</iidm:alias>
                <iidm:property name="CGMES.OperationalLimitSet_identifiers" value="{&quot;_e40d809b-2f3f-4866-817d-7acec0fde34f&quot;:&quot;Limits at Port 1&quot;,&quot;_40b75fae-2597-40df-98d2-8a0d83c238fd&quot;:&quot;Limits at Port 2&quot;}"/>
                <iidm:ratioTapChanger regulating="false" lowTapPosition="1" tapPosition="14" loadTapChangingCapabilities="true">
                    <iidm:step r="-23.961600000000004" x="-23.961600000000004" g="31.512498947900024" b="31.512498947900024" rho="0.872"/>
                    <iidm:step r="-22.560000000000002" x="-22.560000000000002" g="29.132231404958688" b="29.132231404958688" rho="0.8799999999999999"/>
                    <iidm:step r="-21.145599999999998" x="-21.145599999999998" g="26.816005194383564" b="26.816005194383564" rho="0.888"/>
                    <iidm:step r="-19.718399999999992" x="-19.718399999999992" g="24.56154336734693" b="24.56154336734693" rho="0.896"/>
                    <iidm:step r="-18.278399999999994" x="-18.278399999999994" g="22.366669277155605" b="22.366669277155605" rho="0.904"/>
                    <iidm:step r="-16.825599999999994" x="-16.825599999999994" g="20.22930132348415" b="20.22930132348415" rho="0.9120000000000001"/>
                    <iidm:step r="-15.359999999999996" x="-15.359999999999996" g="18.14744801512287" b="18.14744801512287" rho="0.92"/>
                    <iidm:step r="-13.881600000000017" x="-13.881600000000017" g="16.119203329369824" b="16.119203329369824" rho="0.9279999999999999"/>
                    <iidm:step r="-12.390400000000012" x="-12.390400000000012" g="14.142742347870563" b="14.142742347870563" rho="0.936"/>
                    <iidm:step r="-10.886400000000007" x="-10.886400000000007" g="12.216317150244183" b="12.216317150244183" rho="0.944"/>
                    <iidm:step r="-9.36960000000001" x="-9.36960000000001" g="10.338252948238136" b="10.338252948238136" rho="0.952"/>
                    <iidm:step r="-7.8400000000000025" x="-7.8400000000000025" g="8.506944444444443" b="8.506944444444443" rho="0.96"/>
                    <iidm:step r="-6.297600000000003" x="-6.297600000000003" g="6.720852400792299" b="6.720852400792299" rho="0.9679999999999999"/>
                    <iidm:step r="-4.742400000000002" x="-4.742400000000002" g="4.978500403117447" b="4.978500403117447" rho="0.9760000000000001"/>
                    <iidm:step r="-3.1743999999999994" x="-3.1743999999999994" g="3.278471809108341" b="3.278471809108341" rho="0.9839999999999999"/>
                    <iidm:step r="-1.5936000000000061" x="-1.5936000000000061" g="1.6194068678460072" b="1.6194068678460072" rho="0.992"/>
                    <iidm:step r="0.0" x="0.0" g="0.0" b="0.0" rho="1.0"/>
                    <iidm:step r="1.6064000000000078" x="1.6064000000000078" g="-1.5810027714789676" b="-1.5810027714789676" rho="1.008"/>
                    <iidm:step r="3.2256000000000062" x="3.2256000000000062" g="-3.1248062496124995" b="-3.1248062496124995" rho="1.016"/>
                    <iidm:step r="4.857599999999995" x="4.857599999999995" g="-4.632568359375" b="-4.632568359375" rho="1.024"/>
                    <iidm:step r="6.502399999999997" x="6.502399999999997" g="-6.105402319572139" b="-6.105402319572139" rho="1.032"/>
                    <iidm:step r="8.16000000000001" x="8.16000000000001" g="-7.544378698224863" b="-7.544378698224863" rho="1.04"/>
                    <iidm:step r="9.830400000000017" x="9.830400000000017" g="-8.950527358545557" b="-8.950527358545557" rho="1.048"/>
                    <iidm:step r="11.513600000000013" x="11.513600000000013" g="-10.324839302112043" b="-10.324839302112043" rho="1.056"/>
                    <iidm:step r="13.209600000000021" x="13.209600000000021" g="-11.66826841539942" b="-11.66826841539942" rho="1.064"/>
                    <iidm:step r="14.91840000000002" x="14.91840000000002" g="-12.981733125417705" b="-12.981733125417705" rho="1.072"/>
                    <iidm:step r="16.64000000000001" x="16.64000000000001" g="-14.266117969821678" b="-14.266117969821678" rho="1.08"/>
                    <iidm:step r="18.374400000000012" x="18.374400000000012" g="-15.5222750865052" b="-15.5222750865052" rho="1.088"/>
                    <iidm:step r="20.12160000000003" x="20.12160000000003" g="-16.751025627364292" b="-16.751025627364292" rho="1.096"/>
                    <iidm:step r="21.881600000000013" x="21.881600000000013" g="-17.953161100609126" b="-17.953161100609126" rho="1.104"/>
                    <iidm:step r="23.65440000000003" x="23.65440000000003" g="-19.129444645722295" b="-19.129444645722295" rho="1.112"/>
                    <iidm:step r="25.44000000000002" x="25.44000000000002" g="-20.280612244897966" b="-20.280612244897966" rho="1.12"/>
                    <iidm:step r="27.23840000000002" x="27.23840000000002" g="-21.407373874553603" b="-21.407373874553603" rho="1.1280000000000001"/>
                </iidm:ratioTapChanger>
                <iidm:operationalLimitsGroup1 id="_e40d809b-2f3f-4866-817d-7acec0fde34f">
                    <iidm:currentLimits permanentLimit="1308.073"/>
                </iidm:operationalLimitsGroup1>
                <iidm:operationalLimitsGroup2 id="_40b75fae-2597-40df-98d2-8a0d83c238fd">
                    <iidm:currentLimits permanentLimit="13746.44"/>
                </iidm:operationalLimitsGroup2>
            </iidm:twoWindingsTransformer>
            <iidm:threeWindingsTransformer id="_84ed55f4-61f5-4d9d-8755-bba7b877a246" name="BE-TR3_1" r1="0.898462" x1="17.20413" g1="0.0" b1="-2.4375E-6" ratedU1="400.0" ratedS1="650.0" r2="1.070770247933884" x2="19.6664" g2="0.0" b2="0.0" ratedU2="220.0" ratedS2="650.0" r3="4.837006802721088" x3="21.760725623582765" g3="0.0" b3="0.0" ratedU3="21.0" ratedS3="650.0" ratedU0="400.0" voltageLevelId1="_469df5f7-058f-4451-a998-57a48e8a56fe" node1="16" voltageLevelId2="_b10b171b-3bc5-4849-bb1f-61ed9ea1ec7c" node2="17" voltageLevelId3="_929ba893-c9dc-44d7-b1fd-30834bd3ab85" node3="5" selectedOperationalLimitsGroupId1="_b655ab41-8bc0-4bd3-a28c-cf9048e32b4a" selectedOperationalLimitsGroupId2="_a2f11542-aeb8-4d7c-9594-25ac63e148bb" selectedOperationalLimitsGroupId3="_f4fb6a66-b9f6-4c71-bdd2-7e97938d1fe1">
                <iidm:alias type="CGMES.Terminal1">_76e9ca77-f805-40ea-8120-5a6d58416d34</iidm:alias>
                <iidm:alias type="CGMES.Terminal2">_53fd6693-57e6-482e-8fbe-dcf3531a7ce0</iidm:alias>
                <iidm:alias type="CGMES.TransformerEnd3">_2e21d1ef-2287-434c-a767-1ca807cf2478</iidm:alias>
                <iidm:alias type="CGMES.RatioTapChanger2">_fe25f43a-7341-446e-a71a-8ab7119ba806</iidm:alias>
                <iidm:alias type="CGMES.TransformerEnd2">_e1f661c0-971d-4ce5-ad39-0ec427f288ab</iidm:alias>
                <iidm:alias type="CGMES.Terminal3">_ca0f7e2e-3442-4ada-a704-91f319c0ebe3</iidm:alias>
                <iidm:alias type="CGMES.TransformerEnd1">_5f68a129-d5d8-4b71-9743-9ca2572ba26b</iidm:alias>
                <iidm:property name="CGMES.OperationalLimitSet_identifiers" value="{&quot;_b655ab41-8bc0-4bd3-a28c-cf9048e32b4a&quot;:&quot;Limits at Port 1&quot;,&quot;_f4fb6a66-b9f6-4c71-bdd2-7e97938d1fe1&quot;:&quot;Limits at Port 3&quot;,&quot;_a2f11542-aeb8-4d7c-9594-25ac63e148bb&quot;:&quot;Limits at Port 2&quot;}"/>
                <iidm:ratioTapChanger2 regulating="false" lowTapPosition="1" tapPosition="17" loadTapChangingCapabilities="true">
                    <iidm:step r="0.0" x="0.0" g="0.0" b="0.0" rho="1.1111111111111112"/>
                    <iidm:step r="0.0" x="0.0" g="0.0" b="0.0" rho="1.103448275862069"/>
                    <iidm:step r="0.0" x="0.0" g="0.0" b="0.0" rho="1.095890410958904"/>
                    <iidm:step r="0.0" x="0.0" g="0.0" b="0.0" rho="1.08843537414966"/>
                    <iidm:step r="0.0" x="0.0" g="0.0" b="0.0" rho="1.081081081081081"/>
                    <iidm:step r="0.0" x="0.0" g="0.0" b="0.0" rho="1.0738255033557047"/>
                    <iidm:step r="0.0" x="0.0" g="0.0" b="0.0" rho="1.0666666666666667"/>
                    <iidm:step r="0.0" x="0.0" g="0.0" b="0.0" rho="1.0596026490066226"/>
                    <iidm:step r="0.0" x="0.0" g="0.0" b="0.0" rho="1.0526315789473684"/>
                    <iidm:step r="0.0" x="0.0" g="0.0" b="0.0" rho="1.0457516339869282"/>
                    <iidm:step r="0.0" x="0.0" g="0.0" b="0.0" rho="1.0389610389610389"/>
                    <iidm:step r="0.0" x="0.0" g="0.0" b="0.0" rho="1.032258064516129"/>
                    <iidm:step r="0.0" x="0.0" g="0.0" b="0.0" rho="1.0256410256410258"/>
                    <iidm:step r="0.0" x="0.0" g="0.0" b="0.0" rho="1.019108280254777"/>
                    <iidm:step r="0.0" x="0.0" g="0.0" b="0.0" rho="1.0126582278481011"/>
                    <iidm:step r="0.0" x="0.0" g="0.0" b="0.0" rho="1.0062893081761006"/>
                    <iidm:step r="0.0" x="0.0" g="0.0" b="0.0" rho="1.0"/>
                    <iidm:step r="0.0" x="0.0" g="0.0" b="0.0" rho="0.9937888198757763"/>
                    <iidm:step r="0.0" x="0.0" g="0.0" b="0.0" rho="0.9876543209876544"/>
                    <iidm:step r="0.0" x="0.0" g="0.0" b="0.0" rho="0.9815950920245399"/>
                    <iidm:step r="0.0" x="0.0" g="0.0" b="0.0" rho="0.9756097560975611"/>
                    <iidm:step r="0.0" x="0.0" g="0.0" b="0.0" rho="0.9696969696969697"/>
                    <iidm:step r="0.0" x="0.0" g="0.0" b="0.0" rho="0.9638554216867469"/>
                    <iidm:step r="0.0" x="0.0" g="0.0" b="0.0" rho="0.9580838323353293"/>
                    <iidm:step r="0.0" x="0.0" g="0.0" b="0.0" rho="0.9523809523809523"/>
                    <iidm:step r="0.0" x="0.0" g="0.0" b="0.0" rho="0.9467455621301776"/>
                    <iidm:step r="0.0" x="0.0" g="0.0" b="0.0" rho="0.9411764705882353"/>
                    <iidm:step r="0.0" x="0.0" g="0.0" b="0.0" rho="0.935672514619883"/>
                    <iidm:step r="0.0" x="0.0" g="0.0" b="0.0" rho="0.9302325581395349"/>
                    <iidm:step r="0.0" x="0.0" g="0.0" b="0.0" rho="0.9248554913294798"/>
                    <iidm:step r="0.0" x="0.0" g="0.0" b="0.0" rho="0.9195402298850576"/>
                    <iidm:step r="0.0" x="0.0" g="0.0" b="0.0" rho="0.9142857142857143"/>
                    <iidm:step r="0.0" x="0.0" g="0.0" b="0.0" rho="0.9090909090909091"/>
                </iidm:ratioTapChanger2>
                <iidm:operationalLimitsGroup1 id="_b655ab41-8bc0-4bd3-a28c-cf9048e32b4a">
                    <iidm:currentLimits permanentLimit="938.1946"/>
                </iidm:operationalLimitsGroup1>
                <iidm:operationalLimitsGroup2 id="_a2f11542-aeb8-4d7c-9594-25ac63e148bb">
                    <iidm:currentLimits permanentLimit="1705.808"/>
                </iidm:operationalLimitsGroup2>
                <iidm:operationalLimitsGroup3 id="_f4fb6a66-b9f6-4c71-bdd2-7e97938d1fe1">
                    <iidm:currentLimits permanentLimit="17870.37"/>
                </iidm:operationalLimitsGroup3>
            </iidm:threeWindingsTransformer>
        </iidm:substation>
        <iidm:line id="_ffbabc27-1ccd-4fdc-b037-e341706c8d29" name="BE-Line_6" r="5.203" x="71.0" g1="6.0E-5" b1="1.000595E-5" g2="6.0E-5" b2="1.000595E-5" voltageLevelId1="_b10b171b-3bc5-4849-bb1f-61ed9ea1ec7c" node1="14" voltageLevelId2="_69ef0dbd-da79-4eef-a02f-690cb8a28361" node2="19" selectedOperationalLimitsGroupId1="_cb5b5011-9f6c-4af2-93f9-26ae7e30c8db" selectedOperationalLimitsGroupId2="_30cbcb48-f02e-4791-83ab-486d7688874c">
            <iidm:alias type="CGMES.Terminal2">_a4d42d33-ae54-4fe9-ad59-f30da0dfb809</iidm:alias>
            <iidm:alias type="CGMES.Terminal1">_05a17350-55f5-4a00-9a50-8c0048a25495</iidm:alias>
            <iidm:property name="CGMES.OperationalLimitSet_identifiers" value="{&quot;_cb5b5011-9f6c-4af2-93f9-26ae7e30c8db&quot;:&quot;Limits at Port 1&quot;,&quot;_30cbcb48-f02e-4791-83ab-486d7688874c&quot;:&quot;Limits at Port 2&quot;}"/>
            <iidm:operationalLimitsGroup1 id="_cb5b5011-9f6c-4af2-93f9-26ae7e30c8db">
                <iidm:currentLimits permanentLimit="1312.0">
                    <iidm:temporaryLimit name="TATL" acceptableDuration="10" value="500.0"/>
                </iidm:currentLimits>
            </iidm:operationalLimitsGroup1>
            <iidm:operationalLimitsGroup2 id="_30cbcb48-f02e-4791-83ab-486d7688874c">
                <iidm:currentLimits permanentLimit="1312.0">
                    <iidm:temporaryLimit name="TATL" acceptableDuration="10" value="500.0"/>
                </iidm:currentLimits>
            </iidm:operationalLimitsGroup2>
        </iidm:line>
        <iidm:line id="_b58bf21a-096a-4dae-9a01-3f03b60c24c7" name="BE-Line_2" r="1.935" x="34.2" g1="3.375E-5" b1="2.120575E-5" g2="3.375E-5" b2="2.120575E-5" voltageLevelId1="_b10b171b-3bc5-4849-bb1f-61ed9ea1ec7c" node1="15" voltageLevelId2="_69ef0dbd-da79-4eef-a02f-690cb8a28361" node2="20" selectedOperationalLimitsGroupId1="_ecc2f619-5716-4af0-9d76-0631a3832e4f" selectedOperationalLimitsGroupId2="_7168dee1-15a7-4444-839f-feef071e956d">
            <iidm:alias type="CGMES.Terminal2">_77f04391-aa23-49b6-b3e9-6089130bb5d5</iidm:alias>
            <iidm:alias type="CGMES.Terminal1">_699545b9-82b9-4331-bc80-538d73b4ba56</iidm:alias>
            <iidm:property name="CGMES.OperationalLimitSet_identifiers" value="{&quot;_ecc2f619-5716-4af0-9d76-0631a3832e4f&quot;:&quot;Limits at Port 1&quot;,&quot;_7168dee1-15a7-4444-839f-feef071e956d&quot;:&quot;Limits at Port 2&quot;}"/>
            <iidm:operationalLimitsGroup1 id="_ecc2f619-5716-4af0-9d76-0631a3832e4f">
                <iidm:currentLimits permanentLimit="1574.0">
                    <iidm:temporaryLimit name="TATL" acceptableDuration="10" value="500.0"/>
                </iidm:currentLimits>
            </iidm:operationalLimitsGroup1>
            <iidm:operationalLimitsGroup2 id="_7168dee1-15a7-4444-839f-feef071e956d">
                <iidm:currentLimits permanentLimit="1574.0">
                    <iidm:temporaryLimit name="TATL" acceptableDuration="10" value="500.0"/>
                </iidm:currentLimits>
            </iidm:operationalLimitsGroup2>
        </iidm:line>
        <iidm:line id="_df16b3dd-c905-4a6f-84ee-f067be86f5da" name="SER-RLC-1230822986" r="0.0" x="-31.83099" g1="0.0" b1="0.0" g2="0.0" b2="0.0" voltageLevelId1="_69ef0dbd-da79-4eef-a02f-690cb8a28361" node1="21" voltageLevelId2="_69ef0dbd-da79-4eef-a02f-690cb8a28361" node2="22" selectedOperationalLimitsGroupId1="_38c765fb-5707-404a-87f6-ace386edce11" selectedOperationalLimitsGroupId2="_653b4e65-a657-40fc-b987-c9e28104410f">
            <iidm:alias type="CGMES.Terminal1">_8171fc34-6891-40e0-92d1-da9f4ba69e26</iidm:alias>
            <iidm:alias type="CGMES.Terminal2">_13dcec71-4b02-4c0c-93a7-8e16db4aa0b7</iidm:alias>
            <iidm:property name="CGMES.OperationalLimitSet_identifiers" value="{&quot;_38c765fb-5707-404a-87f6-ace386edce11&quot;:&quot;SER-RLC-1230822986&quot;,&quot;_653b4e65-a657-40fc-b987-c9e28104410f&quot;:&quot;SER-RLC-1230822986&quot;}"/>
            <iidm:operationalLimitsGroup1 id="_38c765fb-5707-404a-87f6-ace386edce11">
                <iidm:currentLimits permanentLimit="500.0"/>
            </iidm:operationalLimitsGroup1>
            <iidm:operationalLimitsGroup2 id="_653b4e65-a657-40fc-b987-c9e28104410f">
                <iidm:currentLimits permanentLimit="500.0"/>
            </iidm:operationalLimitsGroup2>
        </iidm:line>
        <iidm:area id="_50487bb8-be6d-42a8-9358-cc0bbfe6cfa7" name="BE" areaType="ControlAreaTypeKind.Interchange" interchangeTarget="237.3313">
            <iidm:property name="pTolerance" value="10"/>
            <iidm:areaBoundary ac="true" type="boundaryRef" id="_b18cd1aa-7808-49b9-a7cf-605eaf07b006"/>
            <iidm:areaBoundary ac="true" type="boundaryRef" id="_78736387-5f60-4832-b3fe-d50daf81b0a6"/>
            <iidm:areaBoundary ac="true" type="boundaryRef" id="_ed0c5d75-4a54-43c8-b782-b20d7431630b"/>
            <iidm:areaBoundary ac="true" type="boundaryRef" id="_17086487-56ba-4979-b8de-064025a6b4da"/>
            <iidm:areaBoundary ac="true" type="boundaryRef" id="_a16b4a6c-70b1-4abf-9a9d-bd0fa47f9fe4"/>
        </iidm:area>
        <iidm:extension id="_550ebe0d-f2b2-48c1-991f-cebea43a21aa">
            <crc:coordinatedReactiveControl qPercent="100.0"/>
            <apc:activePowerControl participate="true" participationFactor="0.0"/>
        </iidm:extension>
        <iidm:extension id="_1c6beed6-1acf-42e7-ba55-0cc9f04bddd8">
            <ld:detail fixedActivePower="0.0" fixedReactivePower="0.0" variableActivePower="200.0" variableReactivePower="50.0"/>
        </iidm:extension>
        <iidm:extension id="_a16b4a6c-70b1-4abf-9a9d-bd0fa47f9fe4">
            <cdlbn:cgmesDanglingLineBoundaryNode isHvdc="false" lineEnergyIdentificationCodeEic="10T-AT-DE-00017X"/>
        </iidm:extension>
        <iidm:extension id="_17086487-56ba-4979-b8de-064025a6b4da">
            <cdlbn:cgmesDanglingLineBoundaryNode isHvdc="false" lineEnergyIdentificationCodeEic="10T-AT-DE-00016Z"/>
        </iidm:extension>
        <iidm:extension id="_ed0c5d75-4a54-43c8-b782-b20d7431630b">
            <cdlbn:cgmesDanglingLineBoundaryNode isHvdc="false" lineEnergyIdentificationCodeEic="10T-AT-SI-00001T"/>
        </iidm:extension>
...